FoamFile{
format ascii; 
class dictionary; 
location "constant"; 
object physicalProperties; 
}

DT    DT [0 2 -1 0 0 0 0] 0.01;  // difusividad termica, l^2/t [m^2/s]




