FoamFile 
{
  format ascii; 
  class dictionary; 
  object blockMeshDict;
}

scale 1; // meters 


// Dominio

vertices
(
(0 0 0) // 0
(1 0 0) // 1
(1 1 0) // 2
(0 1 0) // 3
(0 0 0.1) // 4
(1 0 0.1) // 5
(1 1 0.1) // 6
(0 1 0.1) // 7
);


// Mallado

blocks 
(
// 40x40 en xy, 1 celda en z. Uniforme.
hex (0 1 2 3 4 5 6 7)(40 40 1) simpleGrading (1 1 1)
);

// Flonteras 

boundary
(

  left // x = 0 
  {
    type patch; 
    faces ((0 4 7 3)); 
  }
  right // x =1 
  {
    type patch; 
    faces ((1 2 6 5));
  }

  topAndBottom // y = 0 e y = 1
  {
    type patch; 
    faces 
    (
      (0 1 5 4)
      (3 7 6 2)
    );
  }

frontAndBack
{
type empty; 
faces 
(
(0 3 2 1)
(4 5 6 7)
);
}

);
