FoamFile
{
  format ascii;
  class dictionary; 
  object controlDict;
}


application laplacianFoam; 

startFrom startTime; 
startTime 0; 

stopAt endTime; 
endTime 100; 

deltaT 0.5; 

writeControl timeStep; 
writeInterval 2; 


