FoamFile 
{
  format    ascii;
  class     dictionary; 
  object    fvSchemes;
}


ddtSchemes          {default Euler; } // (Implicito 1er orden)
gradSchemes         {default Gauss linear; }
divSchemes          {default none;}
laplacianSchemes    {default Gauss linear corrected;}

interpolationSchemes {default linear;}
snGradSchemes        {default corrected;}



 
