FoamFile
{
  format    ascii; 
  class     dictionary; 
  object    fvSolution;
}


solvers 
{
  T {
      solver         PCG; 
      preconditioner DIC; 
      tolerance      1e-06; 
      relTol         0; 
  }
}


SIMPLE 
{
nNonOrthogonalCorrectors 0;
}

