/*--------------------------------*- C++ -*----------------------------------*\
  =========                 |
  \\      /  F ield         | OpenFOAM: The Open Source CFD Toolbox
   \\    /   O peration     | Version:  13
    \\  /    A nd           |
     \\/     M anipulation  |
\*---------------------------------------------------------------------------*/
FoamFile
{
    format      ascii;
    class       volScalarField;
    object      p_rgh;
}
// * * * * * * * * * * * * * * * * * * * * * * * * * * * * * * * * * * * * * //

dimensions      [1 -1 -2 0 0 0 0];

internalField   uniform 0;

boundaryField
{
    hotSphere   { type fixedFluxPressure; value uniform 0; }
    floor       { type fixedFluxPressure; value uniform 0; }
    ceiling     { type fixedFluxPressure; value uniform 0; }
    walls       { type fixedFluxPressure; value uniform 0; }
}

// ************************************************************************* //
