/*--------------------------------*- C++ -*----------------------------------*\
  =========                 |
  \\      /  F ield         | OpenFOAM: The Open Source CFD Toolbox
   \\    /   O peration     | Version:  13
    \\  /    A nd           |
     \\/     M anipulation  |
\*---------------------------------------------------------------------------*/
FoamFile
{
    format      ascii;
    class       dictionary;
    object      snappyHexMeshDict;
}
// * * * * * * * * * * * * * * * * * * * * * * * * * * * * * * * * * * * * * //

castellatedMesh true;
snap            true;
addLayers       false;

geometry
{
    hotSphere
    {
        type   searchableSphere;
        centre (0 0.3 0);
        radius 0.1;
    }
}

castellatedMeshControls
{
    maxLocalCells       1000000;
    maxGlobalCells      2000000;
    minRefinementCells  10;
    nCellsBetweenLevels 2;
    maxLoadUnbalance    0.1;
    allowFreeStandingZoneFaces true;
    resolveFeatureAngle 30;

    features ();

    refinementSurfaces
    {
        hotSphere
        {
            level (2 2);                 // refina la superficie de la esfera
            patchInfo { type wall; }
        }
    }

    refinementRegions
    {
        hotSphere
        {
            mode inside;                 // (no usado: la esfera se vacia)
            levels ((1e15 0));
        }
    }

    // punto en el FLUIDO (fuera de la esfera) -> se conserva el aire, se vacia la esfera
    locationInMesh (0 0.8 0);
}

snapControls
{
    nSmoothPatch    3;
    tolerance       2.0;
    nSolveIter      30;
    nRelaxIter      5;
    nFeatureSnapIter 10;
    implicitFeatureSnap false;
    explicitFeatureSnap true;
    multiRegionFeatureSnap false;
}

addLayersControls
{
    relativeSizes    true;
    layers           {}
    expansionRatio   1.0;
    finalLayerThickness 0.3;
    minThickness     0.1;
    nGrow            0;
    featureAngle     60;
    nRelaxIter       3;
    nSmoothSurfaceNormals 1;
    nSmoothNormals   3;
    nSmoothThickness 10;
    maxFaceThicknessRatio 0.5;
    maxThicknessToMedialRatio 0.3;
    minMedialAxisAngle 90;
    nBufferCellsNoExtrude 0;
    nLayerIter       50;
}

meshQualityControls
{
    maxNonOrtho          65;
    maxBoundarySkewness  20;
    maxInternalSkewness  4;
    maxConcave           80;
    minVol               1e-13;
    minTetQuality        1e-15;
    minArea              -1;
    minTwist             0.02;
    minDeterminant       0.001;
    minFaceWeight        0.05;
    minVolRatio          0.01;
    minTriangleTwist     -1;
    nSmoothScale         4;
    errorReduction       0.75;
}

mergeTolerance 1e-6;

// ************************************************************************* //
